// Generated for: spectre
// Generated on: Apr 30 14:55:44 2016
// Design library name: PassTransistor
// Design cell name: And2
// Design view name: schematic
.subckt And2 Out A Ap B GND

// Library name: PassTransistor
// Cell name: And2
// View name: schematic
M1 (Out Ap GND GND) N l=100n w=1.2u nr=8 m=1 ad=0.0792p pd=0.94u as=0.24465p ps=2.24u mismatchflag=0
M0 (Out A B B) N l=100n w=1.2u nr=8 m=1 ad=0.0792p pd=0.94u as=0.24465p ps=2.24u mismatchflag=0
.ends
