.subckt dfbfb1 d cpn sdn cdn q qn 

Cg1_1 7 VSS  5.58754e-16
Cg1_2 SDN VSS  4.06008e-16
Cc2_2 SDN 7  2.4113e-16
Cg1_3 10 VSS  7.01695e-16
Cc2_3 10 SDN  1.37403e-16
Cc3_3 10 7  1.73505e-17
Cg1_4 3 VSS  1.07461e-15
Cc2_4 3 7  3.91074e-16
Cc3_4 3 10  4.91064e-17
Cc4_4 3 SDN  3.42307e-17
Cg1_5 CDN VSS  6.31177e-16
Cc1_5 CDN SDN  1.27885e-16
Cc2_5 CDN 3  9.67438e-18
Cc3_5 CDN 7  3.01395e-17
Cc5_5 CDN 10  1.08649e-16
Cg1_6 4 VSS  5.56186e-16
Cc1_6 4 10  3.10944e-16
Cc3_6 4 CDN  1.74843e-16
Cc4_6 4 7  1.53685e-16
Cc5_6 4 SDN  1.67915e-17
Cc6_6 4 3  6.33301e-17
Cg1_7 14 VSS  2.42445e-16
Cc1_7 14 7  1.97488e-16
Cc2_7 14 CDN  1.15263e-16
Cc3_7 14 4  2.3434e-17
Cc5_7 14 3  2.80008e-17
Cc6_7 14 SDN  3.10385e-17
Cg1_8 CPN VSS  2.24852e-16
Cc2_8 CPN 3  2.48507e-16
Cc3_8 CPN 7  2.67682e-18
Cg1_9 D VSS  2.58019e-16
Cc1_9 D 7  1.30495e-16
Cc3_9 D 3  8.307e-17
Cg1_10 8 VSS  2.38467e-16
Cc1_10 8 3  4.94129e-17
Cc2_10 8 SDN  1.13968e-16
Cc3_10 8 7  3.64946e-16
Cc5_10 8 14  2.40523e-16
Cc6_10 8 D  6.41861e-19
Cc7_10 8 CDN  3.42972e-17
Cc8_10 8 4  9.21659e-19
Cg1_11 VDD VSS  1.04525e-15
Cc1_11 VDD D  4.20837e-17
Cc2_11 VDD 3  3.10824e-16
Cc3_11 VDD 8  4.45675e-17
Cc5_11 VDD CPN  1.02688e-16
Cc6_11 VDD 4  3.18811e-16
Cc7_11 VDD 10  6.24363e-17
Cc8_11 VDD 14  9.5942e-17
Cc9_11 VDD 7  5.11375e-17
Cc10_11 VDD SDN  4.50105e-17
Cc11_11 VDD CDN  3.32134e-16
Cg1_12 38 VSS  7.18931e-17
Cc1_12 38 CDN  2.69997e-17
Cc2_12 38 VDD  1.21536e-16
Cc3_12 38 SDN  8.64726e-18
Cc4_12 38 14  1.24612e-16
Cc5_12 38 7  2.86857e-17
Cc6_12 38 8  2.26661e-16
Cc7_12 38 3  1.10526e-17
Cg1_13 37 VSS  5.96606e-17
Cc1_13 37 D  6.33088e-17
Cc2_13 37 3  2.09979e-17
Cc3_13 37 VDD  3.48399e-17
Cc4_13 37 7  6.33903e-17
Cc5_13 37 8  1.55908e-16
Cg1_14 Q VSS  1.1638e-16
Cc1_14 Q VDD  2.42884e-17
Cc2_14 Q 10  7.27511e-17
Cc4_14 Q 4  1.17704e-17
Cg1_15 35 VSS  7.20988e-17
Cc1_15 35 4  1.92601e-16
Cc2_15 35 CDN  3.02741e-18
Cc3_15 35 SDN  1.66876e-16
Cc4_15 35 10  7.33271e-17
Cc5_15 35 VDD  1.9795e-17
Cc6_15 35 7  4.43319e-17
Cc7_15 35 3  8.29798e-18
Cg1_16 QN VSS  6.74278e-17
Cc1_16 QN 4  1.25096e-16
Cc2_16 QN 10  4.63106e-17
Cc3_16 QN Q  4.17824e-17
Cc5_16 QN VDD  3.0829e-17
Cg1_17 VSS VSS  8.37734e-16
Cc1_17 VSS 7  3.44285e-16
Cc2_17 VSS CDN  6.95675e-17
Cc3_17 VSS 8  1.53579e-18
Cc4_17 VSS SDN  3.5616e-16
Cc5_17 VSS 3  3.47361e-16
Cc6_17 VSS CPN  2.81984e-17
Cc7_17 VSS 4  2.18981e-17
Cc8_17 VSS 10  2.64392e-16
Cc9_17 VSS QN  1.80495e-17
Cc10_17 VSS Q  2.1177e-17
Cc11_17 VSS VDD  2.69489e-17
Cc12_17 VSS 14  5.30234e-19
Cc13_17 VSS D  1.29515e-17
Cc1_18 42 CDN  6.82118e-18
Cc1_19 41 SDN  7.11341e-18
Cc1_20 40 7  5.06064e-18
Cc1_21 39 8  4.04139e-18
Cc2_21 39 7  2.3949e-18
MM18 VDD 10 Q VDD P l=0.13u w=1.46u ad=0.292p pd=1.86u as=0.511p ps=3.62u
MM19 VDD 4 QN VDD P l=0.13u w=1.46u ad=0.292p pd=1.86u as=0.4186p ps=3.62u
MM21 VDD CDN 38 VDD P l=0.13u w=0.995u ad=0.199p pd=1.395u as=0.29485p ps=2.69u
MM24 37 D VDD VDD P l=0.13u w=1.05u ad=0.2352p pd=1.76077u as=0.3p ps=2.82u
MM20 8 3 37 VDD P l=0.13u w=0.9u ad=0.18p pd=1.3u as=0.2016p ps=1.50923u
MM23 38 7 8 VDD P l=0.13u w=0.9u ad=0.184061p pd=1.32507u as=0.18p ps=1.3u
MM22 VDD 14 38 VDD P l=0.13u w=0.995u ad=0.199p pd=1.395u as=0.203489p
+ ps=1.46493u
MM30 VDD SDN 35 VDD P l=0.13u w=0.885u ad=0.26325p pd=1.665u as=0.25695p
+ ps=2.47u
MM27 VDD SDN 14 VDD P l=0.13u w=0.95u ad=0.19p pd=1.35u as=0.2677p ps=2.6u
MM28 14 8 VDD VDD P l=0.13u w=0.95u ad=0.19475p pd=1.5u as=0.19p ps=1.35u
MM29 4 7 14 VDD P l=0.13u w=0.76u ad=0.152p pd=1.16u as=0.1558p ps=1.2u
MM25 35 3 4 VDD P l=0.13u w=0.76u ad=0.18173p pd=1.2428u as=0.152p ps=1.16u
MM26 VDD 10 35 VDD P l=0.13u w=0.885u ad=0.26325p pd=1.665u as=0.21162p
+ ps=1.4472u
MM32 10 4 VDD VDD P l=0.13u w=1.1u ad=0.22p pd=1.5u as=0.3668p ps=3u
MM31 10 CDN VDD VDD P l=0.13u w=1.1u ad=0.22p pd=1.5u as=0.381p ps=3u
MM33 VDD 3 7 VDD P l=0.13u w=1.1u ad=0.227021p pd=1.54468u as=0.3058p ps=2.9u
MM34 VDD CPN 3 VDD P l=0.13u w=1.25u ad=0.257979p pd=1.75532u as=0.4375p
+ ps=3.2u
MM6 42 4 10 VSS N l=0.13u w=0.72u ad=0.0792p pd=0.94u as=0.24465p ps=2.24u
MM9 VSS D 37 VSS N l=0.13u w=0.45u ad=0.2025p pd=1.8u as=0.193781p ps=1.4625u
MM8 8 7 37 VSS N l=0.13u w=0.35u ad=0.07p pd=0.75u as=0.150719p ps=1.1375u
MM2 38 3 8 VSS N l=0.13u w=0.35u ad=0.0931429p pd=0.778571u as=0.07p ps=0.75u
MM7 39 14 38 VSS N l=0.13u w=0.63u ad=0.11325p pd=1.03u as=0.167657p
+ ps=1.40143u
MM4 VSS CDN 39 VSS N l=0.13u w=0.63u ad=0.224475p pd=1.445u as=0.11325p
+ ps=1.03u
MM10 40 SDN VSS VSS N l=0.13u w=0.63u ad=0.0945p pd=0.93u as=0.224475p
+ ps=1.445u
MM11 14 8 40 VSS N l=0.13u w=0.63u ad=0.19485p pd=1.49143u as=0.0945p ps=0.93u
MM1 4 3 14 VSS N l=0.13u w=0.35u ad=0.20845p pd=1.5u as=0.10825p ps=0.828571u
MM13 35 7 4 VSS N l=0.13u w=0.35u ad=0.114345p pd=0.959794u as=0.20845p ps=1.5u
MM5 41 10 35 VSS N l=0.13u w=0.62u ad=0.062p pd=0.82u as=0.202555p ps=1.70021u
MM12 VSS SDN 41 VSS N l=0.13u w=0.62u ad=0.206682p pd=1.30015u as=0.062p
+ ps=0.82u
MM3 42 CDN VSS VSS N l=0.13u w=0.72u ad=0.0792p pd=0.94u as=0.240018p
+ ps=1.50985u
MM14 VSS 10 Q VSS N l=0.13u w=0.5u ad=0.1p pd=0.9u as=0.175p ps=1.7u
MM15 VSS 4 QN VSS N l=0.13u w=0.5u ad=0.1p pd=0.9u as=0.175p ps=1.7u
MM16 VSS 3 7 VSS N l=0.13u w=0.4u ad=0.0844444p pd=0.8u as=0.14p ps=1.5u
MM17 VSS CPN 3 VSS N l=0.13u w=0.5u ad=0.105556p pd=1u as=0.175p ps=1.7u
.ends
