.subckt inv0d1 i zn 

Cg1_1 I VSS  2.38045e-16
Cg1_2 VDD VSS  4.46394e-16
Cc1_2 VDD I  1.31929e-16
Cg1_3 ZN VSS  9.56627e-17
Cc1_3 ZN I  1.82767e-16
Cc2_3 ZN VDD  9.97639e-17
Cg1_4 VSS VSS  4.01673e-16
Cc1_4 VSS VDD  6.30936e-17
Cc2_4 VSS I  1.28102e-16
Cc3_4 VSS ZN  1.67952e-16
MM2 VDD I ZN VDD P l=0.13u w=1.515u ad=0.53025p pd=3.73u as=0.40245p ps=3.73u
MM1 ZN I VSS VSS N l=0.13u w=0.52u ad=0.182p pd=1.74u as=0.1556p ps=1.74u
.ends
