** Generated for: hspiceD
** Generated on: May 21 13:43:25 2016
** Design library name: PassTransistor
** Design cell name: And2
** Design view name: schematic
.GLOBAL 0
.subckt and2 out ap b a


.TEMP 25
.OPTION
+    ARTIST=2
+    INGOLD=2
+    MEASOUT=1
+    PARHIER=LOCAL
+    PSF=2
.INCLUDE "/home/Rezayi/Desktop/hspice.mdl"

** Library name: PassTransistor
** Cell name: And2
** View name: schematic
m1 out ap 0 0 nch l=100e-9 w=200e-9 m=1 ad=46e-15 as=46e-15 pd=860e-9 ps=860e-9 nrd=650e-3 nrs=650e-3 sa=230e-9 sb=230e-9
m0 out a b b nch l=100e-9 w=200e-9 m=1 ad=46e-15 as=46e-15 pd=860e-9 ps=860e-9 nrd=650e-3 nrs=650e-3 sa=230e-9 sb=230e-9
.END
